                   SWAT+               
             Revision 60.5.5          
      Soil & Water Assessment Tool    
               PC Version             
    Program reading . . . executing


  Date of Sim   3/ 2/2023 Time  16: 9:33
 reading from precipitation file         Time  16: 9:33
 reading from temperature file           Time  16: 9:33
 reading from solar radiation file       Time  16: 9:33
 reading from relative humidity file     Time  16: 9:33
 reading from wind file                  Time  16: 9:33
 reading from wgn file                   Time  16: 9:33
 reading from wx station file            Time  16: 9:33
  Original Simulation        1   1  2008 Yr    1 of    7 Time  16: 9:34
  Original Simulation        1   2  2008 Yr    1 of    7 Time  16: 9:34
  Original Simulation        1   3  2008 Yr    1 of    7 Time  16: 9:34
  Original Simulation        1   4  2008 Yr    1 of    7 Time  16: 9:34
  Original Simulation        1   5  2008 Yr    1 of    7 Time  16: 9:34
  Original Simulation        1   6  2008 Yr    1 of    7 Time  16: 9:34
  Original Simulation        1   7  2008 Yr    1 of    7 Time  16: 9:34
  Original Simulation        1   8  2008 Yr    1 of    7 Time  16: 9:34
  Original Simulation        1   9  2008 Yr    1 of    7 Time  16: 9:34
  Original Simulation        1  10  2008 Yr    1 of    7 Time  16: 9:34
  Original Simulation        1  11  2008 Yr    1 of    7 Time  16: 9:34
  Original Simulation        1  12  2008 Yr    1 of    7 Time  16: 9:34
  Original Simulation        1  13  2008 Yr    1 of    7 Time  16: 9:34
  Original Simulation        1  14  2008 Yr    1 of    7 Time  16: 9:35
  Original Simulation        1  15  2008 Yr    1 of    7 Time  16: 9:35
  Original Simulation        1  16  2008 Yr    1 of    7 Time  16: 9:35
  Original Simulation        1  17  2008 Yr    1 of    7 Time  16: 9:35
  Original Simulation        1  18  2008 Yr    1 of    7 Time  16: 9:35
  Original Simulation        1  19  2008 Yr    1 of    7 Time  16: 9:35
  Original Simulation        1  20  2008 Yr    1 of    7 Time  16: 9:35
  Original Simulation        1  21  2008 Yr    1 of    7 Time  16: 9:35
  Original Simulation        1  22  2008 Yr    1 of    7 Time  16: 9:35
  Original Simulation        1  23  2008 Yr    1 of    7 Time  16: 9:35
  Original Simulation        1  24  2008 Yr    1 of    7 Time  16: 9:35
  Original Simulation        1  25  2008 Yr    1 of    7 Time  16: 9:35
  Original Simulation        1  26  2008 Yr    1 of    7 Time  16: 9:35
  Original Simulation        1  27  2008 Yr    1 of    7 Time  16: 9:35
  Original Simulation        1  28  2008 Yr    1 of    7 Time  16: 9:35
  Original Simulation        1  29  2008 Yr    1 of    7 Time  16: 9:36
  Original Simulation        1  30  2008 Yr    1 of    7 Time  16: 9:36
  Original Simulation        1  31  2008 Yr    1 of    7 Time  16: 9:36
  Original Simulation        2   1  2008 Yr    1 of    7 Time  16: 9:36
  Original Simulation        2   2  2008 Yr    1 of    7 Time  16: 9:36
  Original Simulation        2   3  2008 Yr    1 of    7 Time  16: 9:36
  Original Simulation        2   4  2008 Yr    1 of    7 Time  16: 9:36
  Original Simulation        2   5  2008 Yr    1 of    7 Time  16: 9:36
  Original Simulation        2   6  2008 Yr    1 of    7 Time  16: 9:36
  Original Simulation        2   7  2008 Yr    1 of    7 Time  16: 9:36
  Original Simulation        2   8  2008 Yr    1 of    7 Time  16: 9:36
  Original Simulation        2   9  2008 Yr    1 of    7 Time  16: 9:36
  Original Simulation        2  10  2008 Yr    1 of    7 Time  16: 9:37
  Original Simulation        2  11  2008 Yr    1 of    7 Time  16: 9:37
  Original Simulation        2  12  2008 Yr    1 of    7 Time  16: 9:37
  Original Simulation        2  13  2008 Yr    1 of    7 Time  16: 9:37
  Original Simulation        2  14  2008 Yr    1 of    7 Time  16: 9:37
  Original Simulation        2  15  2008 Yr    1 of    7 Time  16: 9:37
  Original Simulation        2  16  2008 Yr    1 of    7 Time  16: 9:37
  Original Simulation        2  17  2008 Yr    1 of    7 Time  16: 9:37
  Original Simulation        2  18  2008 Yr    1 of    7 Time  16: 9:37
  Original Simulation        2  19  2008 Yr    1 of    7 Time  16: 9:37
  Original Simulation        2  20  2008 Yr    1 of    7 Time  16: 9:37
  Original Simulation        2  21  2008 Yr    1 of    7 Time  16: 9:37
  Original Simulation        2  22  2008 Yr    1 of    7 Time  16: 9:37
  Original Simulation        2  23  2008 Yr    1 of    7 Time  16: 9:37
  Original Simulation        2  24  2008 Yr    1 of    7 Time  16: 9:38
  Original Simulation        2  25  2008 Yr    1 of    7 Time  16: 9:38
  Original Simulation        2  26  2008 Yr    1 of    7 Time  16: 9:38
  Original Simulation        2  27  2008 Yr    1 of    7 Time  16: 9:38
  Original Simulation        2  28  2008 Yr    1 of    7 Time  16: 9:38
  Original Simulation        2  29  2008 Yr    1 of    7 Time  16: 9:38
  Original Simulation        3   1  2008 Yr    1 of    7 Time  16: 9:38
  Original Simulation        3   2  2008 Yr    1 of    7 Time  16: 9:38
  Original Simulation        3   3  2008 Yr    1 of    7 Time  16: 9:38
  Original Simulation        3   4  2008 Yr    1 of    7 Time  16: 9:38
  Original Simulation        3   5  2008 Yr    1 of    7 Time  16: 9:38
  Original Simulation        3   6  2008 Yr    1 of    7 Time  16: 9:38
  Original Simulation        3   7  2008 Yr    1 of    7 Time  16: 9:38
  Original Simulation        3   8  2008 Yr    1 of    7 Time  16: 9:39
  Original Simulation        3   9  2008 Yr    1 of    7 Time  16: 9:39
  Original Simulation        3  10  2008 Yr    1 of    7 Time  16: 9:39
  Original Simulation        3  11  2008 Yr    1 of    7 Time  16: 9:39
  Original Simulation        3  12  2008 Yr    1 of    7 Time  16: 9:39
  Original Simulation        3  13  2008 Yr    1 of    7 Time  16: 9:39
  Original Simulation        3  14  2008 Yr    1 of    7 Time  16: 9:39
  Original Simulation        3  15  2008 Yr    1 of    7 Time  16: 9:39
  Original Simulation        3  16  2008 Yr    1 of    7 Time  16: 9:39
  Original Simulation        3  17  2008 Yr    1 of    7 Time  16: 9:39
  Original Simulation        3  18  2008 Yr    1 of    7 Time  16: 9:39
  Original Simulation        3  19  2008 Yr    1 of    7 Time  16: 9:39
  Original Simulation        3  20  2008 Yr    1 of    7 Time  16: 9:39
  Original Simulation        3  21  2008 Yr    1 of    7 Time  16: 9:40
  Original Simulation        3  22  2008 Yr    1 of    7 Time  16: 9:40
  Original Simulation        3  23  2008 Yr    1 of    7 Time  16: 9:40
  Original Simulation        3  24  2008 Yr    1 of    7 Time  16: 9:40
  Original Simulation        3  25  2008 Yr    1 of    7 Time  16: 9:40
  Original Simulation        3  26  2008 Yr    1 of    7 Time  16: 9:40
  Original Simulation        3  27  2008 Yr    1 of    7 Time  16: 9:40
  Original Simulation        3  28  2008 Yr    1 of    7 Time  16: 9:40
  Original Simulation        3  29  2008 Yr    1 of    7 Time  16: 9:40
  Original Simulation        3  30  2008 Yr    1 of    7 Time  16: 9:40
  Original Simulation        3  31  2008 Yr    1 of    7 Time  16: 9:40
  Original Simulation        4   1  2008 Yr    1 of    7 Time  16: 9:40
  Original Simulation        4   2  2008 Yr    1 of    7 Time  16: 9:40
  Original Simulation        4   3  2008 Yr    1 of    7 Time  16: 9:40
  Original Simulation        4   4  2008 Yr    1 of    7 Time  16: 9:41
  Original Simulation        4   5  2008 Yr    1 of    7 Time  16: 9:41
  Original Simulation        4   6  2008 Yr    1 of    7 Time  16: 9:41
  Original Simulation        4   7  2008 Yr    1 of    7 Time  16: 9:41
  Original Simulation        4   8  2008 Yr    1 of    7 Time  16: 9:41
  Original Simulation        4   9  2008 Yr    1 of    7 Time  16: 9:41
  Original Simulation        4  10  2008 Yr    1 of    7 Time  16: 9:41
  Original Simulation        4  11  2008 Yr    1 of    7 Time  16: 9:41
  Original Simulation        4  12  2008 Yr    1 of    7 Time  16: 9:41
  Original Simulation        4  13  2008 Yr    1 of    7 Time  16: 9:41
  Original Simulation        4  14  2008 Yr    1 of    7 Time  16: 9:41
  Original Simulation        4  15  2008 Yr    1 of    7 Time  16: 9:41
  Original Simulation        4  16  2008 Yr    1 of    7 Time  16: 9:41
  Original Simulation        4  17  2008 Yr    1 of    7 Time  16: 9:42
  Original Simulation        4  18  2008 Yr    1 of    7 Time  16: 9:42
  Original Simulation        4  19  2008 Yr    1 of    7 Time  16: 9:42
  Original Simulation        4  20  2008 Yr    1 of    7 Time  16: 9:42
  Original Simulation        4  21  2008 Yr    1 of    7 Time  16: 9:42
  Original Simulation        4  22  2008 Yr    1 of    7 Time  16: 9:42
  Original Simulation        4  23  2008 Yr    1 of    7 Time  16: 9:42
  Original Simulation        4  24  2008 Yr    1 of    7 Time  16: 9:42
  Original Simulation        4  25  2008 Yr    1 of    7 Time  16: 9:42
  Original Simulation        4  26  2008 Yr    1 of    7 Time  16: 9:42
  Original Simulation        4  27  2008 Yr    1 of    7 Time  16: 9:42
  Original Simulation        4  28  2008 Yr    1 of    7 Time  16: 9:42
  Original Simulation        4  29  2008 Yr    1 of    7 Time  16: 9:42
  Original Simulation        4  30  2008 Yr    1 of    7 Time  16: 9:42
  Original Simulation        5   1  2008 Yr    1 of    7 Time  16: 9:43
  Original Simulation        5   2  2008 Yr    1 of    7 Time  16: 9:43
  Original Simulation        5   3  2008 Yr    1 of    7 Time  16: 9:43
  Original Simulation        5   4  2008 Yr    1 of    7 Time  16: 9:43
  Original Simulation        5   5  2008 Yr    1 of    7 Time  16: 9:43
  Original Simulation        5   6  2008 Yr    1 of    7 Time  16: 9:43
  Original Simulation        5   7  2008 Yr    1 of    7 Time  16: 9:43
  Original Simulation        5   8  2008 Yr    1 of    7 Time  16: 9:43
  Original Simulation        5   9  2008 Yr    1 of    7 Time  16: 9:43
  Original Simulation        5  10  2008 Yr    1 of    7 Time  16: 9:43
  Original Simulation        5  11  2008 Yr    1 of    7 Time  16: 9:43
  Original Simulation        5  12  2008 Yr    1 of    7 Time  16: 9:43
  Original Simulation        5  13  2008 Yr    1 of    7 Time  16: 9:44
  Original Simulation        5  14  2008 Yr    1 of    7 Time  16: 9:44
  Original Simulation        5  15  2008 Yr    1 of    7 Time  16: 9:44
  Original Simulation        5  16  2008 Yr    1 of    7 Time  16: 9:44
  Original Simulation        5  17  2008 Yr    1 of    7 Time  16: 9:44
  Original Simulation        5  18  2008 Yr    1 of    7 Time  16: 9:44
  Original Simulation        5  19  2008 Yr    1 of    7 Time  16: 9:44
  Original Simulation        5  20  2008 Yr    1 of    7 Time  16: 9:44
  Original Simulation        5  21  2008 Yr    1 of    7 Time  16: 9:44
  Original Simulation        5  22  2008 Yr    1 of    7 Time  16: 9:44
  Original Simulation        5  23  2008 Yr    1 of    7 Time  16: 9:44
  Original Simulation        5  24  2008 Yr    1 of    7 Time  16: 9:44
  Original Simulation        5  25  2008 Yr    1 of    7 Time  16: 9:44
  Original Simulation        5  26  2008 Yr    1 of    7 Time  16: 9:45
  Original Simulation        5  27  2008 Yr    1 of    7 Time  16: 9:45
  Original Simulation        5  28  2008 Yr    1 of    7 Time  16: 9:45
  Original Simulation        5  29  2008 Yr    1 of    7 Time  16: 9:45
  Original Simulation        5  30  2008 Yr    1 of    7 Time  16: 9:45
  Original Simulation        5  31  2008 Yr    1 of    7 Time  16: 9:45
  Original Simulation        6   1  2008 Yr    1 of    7 Time  16: 9:45
  Original Simulation        6   2  2008 Yr    1 of    7 Time  16: 9:45
  Original Simulation        6   3  2008 Yr    1 of    7 Time  16: 9:45
  Original Simulation        6   4  2008 Yr    1 of    7 Time  16: 9:45
  Original Simulation        6   5  2008 Yr    1 of    7 Time  16: 9:45
  Original Simulation        6   6  2008 Yr    1 of    7 Time  16: 9:45
  Original Simulation        6   7  2008 Yr    1 of    7 Time  16: 9:46
  Original Simulation        6   8  2008 Yr    1 of    7 Time  16: 9:46
  Original Simulation        6   9  2008 Yr    1 of    7 Time  16: 9:46
  Original Simulation        6  10  2008 Yr    1 of    7 Time  16: 9:46
  Original Simulation        6  11  2008 Yr    1 of    7 Time  16: 9:46
  Original Simulation        6  12  2008 Yr    1 of    7 Time  16: 9:46
  Original Simulation        6  13  2008 Yr    1 of    7 Time  16: 9:46
  Original Simulation        6  14  2008 Yr    1 of    7 Time  16: 9:46
  Original Simulation        6  15  2008 Yr    1 of    7 Time  16: 9:46
  Original Simulation        6  16  2008 Yr    1 of    7 Time  16: 9:46
  Original Simulation        6  17  2008 Yr    1 of    7 Time  16: 9:46
  Original Simulation        6  18  2008 Yr    1 of    7 Time  16: 9:46
  Original Simulation        6  19  2008 Yr    1 of    7 Time  16: 9:47
  Original Simulation        6  20  2008 Yr    1 of    7 Time  16: 9:47
  Original Simulation        6  21  2008 Yr    1 of    7 Time  16: 9:47
  Original Simulation        6  22  2008 Yr    1 of    7 Time  16: 9:47
  Original Simulation        6  23  2008 Yr    1 of    7 Time  16: 9:47
  Original Simulation        6  24  2008 Yr    1 of    7 Time  16: 9:47
  Original Simulation        6  25  2008 Yr    1 of    7 Time  16: 9:47
  Original Simulation        6  26  2008 Yr    1 of    7 Time  16: 9:47
  Original Simulation        6  27  2008 Yr    1 of    7 Time  16: 9:47
  Original Simulation        6  28  2008 Yr    1 of    7 Time  16: 9:47
  Original Simulation        6  29  2008 Yr    1 of    7 Time  16: 9:47
  Original Simulation        6  30  2008 Yr    1 of    7 Time  16: 9:47
  Original Simulation        7   1  2008 Yr    1 of    7 Time  16: 9:48
  Original Simulation        7   2  2008 Yr    1 of    7 Time  16: 9:48
  Original Simulation        7   3  2008 Yr    1 of    7 Time  16: 9:48
  Original Simulation        7   4  2008 Yr    1 of    7 Time  16: 9:48
  Original Simulation        7   5  2008 Yr    1 of    7 Time  16: 9:48
  Original Simulation        7   6  2008 Yr    1 of    7 Time  16: 9:48
  Original Simulation        7   7  2008 Yr    1 of    7 Time  16: 9:48
  Original Simulation        7   8  2008 Yr    1 of    7 Time  16: 9:48
  Original Simulation        7   9  2008 Yr    1 of    7 Time  16: 9:48
  Original Simulation        7  10  2008 Yr    1 of    7 Time  16: 9:48
  Original Simulation        7  11  2008 Yr    1 of    7 Time  16: 9:48
  Original Simulation        7  12  2008 Yr    1 of    7 Time  16: 9:48
  Original Simulation        7  13  2008 Yr    1 of    7 Time  16: 9:49
  Original Simulation        7  14  2008 Yr    1 of    7 Time  16: 9:49
  Original Simulation        7  15  2008 Yr    1 of    7 Time  16: 9:49
  Original Simulation        7  16  2008 Yr    1 of    7 Time  16: 9:49
  Original Simulation        7  17  2008 Yr    1 of    7 Time  16: 9:49
  Original Simulation        7  18  2008 Yr    1 of    7 Time  16: 9:49
  Original Simulation        7  19  2008 Yr    1 of    7 Time  16: 9:49
  Original Simulation        7  20  2008 Yr    1 of    7 Time  16: 9:49
  Original Simulation        7  21  2008 Yr    1 of    7 Time  16: 9:49
  Original Simulation        7  22  2008 Yr    1 of    7 Time  16: 9:49
  Original Simulation        7  23  2008 Yr    1 of    7 Time  16: 9:49
  Original Simulation        7  24  2008 Yr    1 of    7 Time  16: 9:49
  Original Simulation        7  25  2008 Yr    1 of    7 Time  16: 9:50
  Original Simulation        7  26  2008 Yr    1 of    7 Time  16: 9:50
  Original Simulation        7  27  2008 Yr    1 of    7 Time  16: 9:50
  Original Simulation        7  28  2008 Yr    1 of    7 Time  16: 9:50
  Original Simulation        7  29  2008 Yr    1 of    7 Time  16: 9:50
  Original Simulation        7  30  2008 Yr    1 of    7 Time  16: 9:50
  Original Simulation        7  31  2008 Yr    1 of    7 Time  16: 9:50
  Original Simulation        8   1  2008 Yr    1 of    7 Time  16: 9:50
  Original Simulation        8   2  2008 Yr    1 of    7 Time  16: 9:50
  Original Simulation        8   3  2008 Yr    1 of    7 Time  16: 9:50
  Original Simulation        8   4  2008 Yr    1 of    7 Time  16: 9:50
  Original Simulation        8   5  2008 Yr    1 of    7 Time  16: 9:50
  Original Simulation        8   6  2008 Yr    1 of    7 Time  16: 9:50
  Original Simulation        8   7  2008 Yr    1 of    7 Time  16: 9:51
  Original Simulation        8   8  2008 Yr    1 of    7 Time  16: 9:51
  Original Simulation        8   9  2008 Yr    1 of    7 Time  16: 9:51
  Original Simulation        8  10  2008 Yr    1 of    7 Time  16: 9:51
  Original Simulation        8  11  2008 Yr    1 of    7 Time  16: 9:51
  Original Simulation        8  12  2008 Yr    1 of    7 Time  16: 9:51
  Original Simulation        8  13  2008 Yr    1 of    7 Time  16: 9:51
  Original Simulation        8  14  2008 Yr    1 of    7 Time  16: 9:51
  Original Simulation        8  15  2008 Yr    1 of    7 Time  16: 9:51
  Original Simulation        8  16  2008 Yr    1 of    7 Time  16: 9:51
  Original Simulation        8  17  2008 Yr    1 of    7 Time  16: 9:51
  Original Simulation        8  18  2008 Yr    1 of    7 Time  16: 9:51
  Original Simulation        8  19  2008 Yr    1 of    7 Time  16: 9:52
  Original Simulation        8  20  2008 Yr    1 of    7 Time  16: 9:52
  Original Simulation        8  21  2008 Yr    1 of    7 Time  16: 9:52
  Original Simulation        8  22  2008 Yr    1 of    7 Time  16: 9:52
  Original Simulation        8  23  2008 Yr    1 of    7 Time  16: 9:52
  Original Simulation        8  24  2008 Yr    1 of    7 Time  16: 9:52
  Original Simulation        8  25  2008 Yr    1 of    7 Time  16: 9:52
  Original Simulation        8  26  2008 Yr    1 of    7 Time  16: 9:52
  Original Simulation        8  27  2008 Yr    1 of    7 Time  16: 9:52
  Original Simulation        8  28  2008 Yr    1 of    7 Time  16: 9:52
  Original Simulation        8  29  2008 Yr    1 of    7 Time  16: 9:52
  Original Simulation        8  30  2008 Yr    1 of    7 Time  16: 9:52
  Original Simulation        8  31  2008 Yr    1 of    7 Time  16: 9:52
  Original Simulation        9   1  2008 Yr    1 of    7 Time  16: 9:53
  Original Simulation        9   2  2008 Yr    1 of    7 Time  16: 9:53
  Original Simulation        9   3  2008 Yr    1 of    7 Time  16: 9:53
  Original Simulation        9   4  2008 Yr    1 of    7 Time  16: 9:53
  Original Simulation        9   5  2008 Yr    1 of    7 Time  16: 9:53
  Original Simulation        9   6  2008 Yr    1 of    7 Time  16: 9:53
  Original Simulation        9   7  2008 Yr    1 of    7 Time  16: 9:53
  Original Simulation        9   8  2008 Yr    1 of    7 Time  16: 9:53
  Original Simulation        9   9  2008 Yr    1 of    7 Time  16: 9:53
  Original Simulation        9  10  2008 Yr    1 of    7 Time  16: 9:53
